Version 4
SHEET 1 880 680
WIRE 240 64 160 64
WIRE 352 64 320 64
WIRE 480 64 416 64
WIRE 608 64 560 64
WIRE 640 64 608 64
WIRE 784 64 720 64
WIRE 608 112 608 64
WIRE 784 112 784 64
WIRE 160 128 160 64
WIRE 160 272 160 208
WIRE 608 272 608 192
WIRE 608 272 160 272
WIRE 784 272 784 192
WIRE 784 272 608 272
WIRE 160 288 160 272
FLAG 160 288 0
SYMBOL voltage 160 112 R0
WINDOW 3 25 117 Left 2
WINDOW 123 27 92 Left 2
WINDOW 39 0 0 Left 0
SYMATTR Value SINE(0 1 0.477)
SYMATTR Value2 AC 1
SYMATTR InstName V1
SYMBOL res 336 48 R90
WINDOW 0 0 56 VBottom 2
WINDOW 3 32 56 VTop 2
SYMATTR InstName R1
SYMATTR Value 8
SYMBOL cap 416 48 R90
WINDOW 0 0 32 VBottom 2
WINDOW 3 32 32 VTop 2
SYMATTR InstName C1
SYMATTR Value 50m
SYMBOL ind 576 48 R90
WINDOW 0 5 56 VBottom 2
WINDOW 3 32 56 VTop 2
SYMATTR InstName L1
SYMATTR Value 1
SYMBOL ind 624 208 R180
WINDOW 0 36 80 Left 2
WINDOW 3 36 40 Left 2
SYMATTR InstName L2
SYMATTR Value 3
SYMBOL ind 624 80 R270
WINDOW 0 32 56 VTop 2
WINDOW 3 5 56 VBottom 2
SYMATTR InstName L3
SYMATTR Value 2
SYMBOL res 768 96 R0
SYMATTR InstName R2
SYMATTR Value 12
TEXT 128 312 Left 2 !;ac lin 1000 0.477 0.478
TEXT 128 336 Left 2 !.tran 10
