Version 4
SHEET 1 880 680
WIRE 80 80 32 80
WIRE 224 80 160 80
WIRE 352 80 304 80
WIRE 480 80 352 80
WIRE 656 80 480 80
WIRE 32 144 32 80
WIRE 480 144 480 80
WIRE 656 144 656 80
WIRE 352 160 352 80
WIRE 32 320 32 224
WIRE 352 320 352 224
WIRE 352 320 32 320
WIRE 480 320 480 224
WIRE 480 320 352 320
WIRE 656 320 656 224
WIRE 656 320 480 320
WIRE 352 352 352 320
FLAG 352 352 0
SYMBOL voltage 32 128 R0
WINDOW 123 0 0 Left 0
WINDOW 39 0 0 Left 0
SYMATTR InstName V1
SYMATTR Value PULSE(0 6 0 0 0)
SYMBOL res 176 64 R90
WINDOW 0 0 56 VBottom 2
WINDOW 3 32 56 VTop 2
SYMATTR InstName R1
SYMATTR Value 3
SYMBOL ind 320 64 R90
WINDOW 0 5 56 VBottom 2
WINDOW 3 32 56 VTop 2
SYMATTR InstName L1
SYMATTR Value 0.25
SYMBOL cap 336 160 R0
SYMATTR InstName C1
SYMATTR Value 0.1
SYMBOL res 464 128 R0
SYMATTR InstName R2
SYMATTR Value 5
SYMBOL current 656 224 R180
WINDOW 0 24 80 Left 2
WINDOW 3 24 0 Left 2
WINDOW 123 0 0 Left 0
WINDOW 39 0 0 Left 0
SYMATTR InstName I1
SYMATTR Value PULSE(6 0 0 0 0)
TEXT -2 376 Left 2 !.tran 10
