Version 4
SHEET 1 880 680
WIRE 384 64 320 64
WIRE 160 160 160 64
WIRE 384 240 384 64
WIRE 384 240 160 240
FLAG 384 240 0
SYMBOL voltage 160 144 R0
WINDOW 123 24 124 Left 2
WINDOW 39 0 0 Left 0
SYMATTR InstName V1
SYMATTR Value ""
SYMATTR Value2 AC 1243.23 93.23
SYMBOL res 256 48 R90
WINDOW 0 0 56 VBottom 2
WINDOW 3 32 56 VTop 2
SYMATTR InstName R1
SYMATTR Value 14.71
SYMBOL ind 336 48 R90
WINDOW 0 5 56 VBottom 2
WINDOW 3 32 56 VTop 2
SYMATTR InstName L1
SYMATTR Value 1.36m
TEXT 126 288 Left 2 !.ac dec 10 317 319
