Version 4
SHEET 1 880 680
WIRE 176 48 128 48
WIRE 304 48 256 48
WIRE 352 48 304 48
WIRE 480 48 432 48
WIRE 608 48 480 48
WIRE 480 96 480 48
WIRE 608 96 608 48
WIRE 128 112 128 48
WIRE 304 112 304 48
WIRE 128 240 128 192
WIRE 304 240 304 192
WIRE 304 240 128 240
WIRE 352 240 304 240
WIRE 480 240 416 240
WIRE 608 240 608 176
WIRE 608 240 480 240
FLAG 304 240 0
SYMBOL voltage 128 96 R0
WINDOW 123 -131 80 Left 2
WINDOW 39 0 0 Left 0
WINDOW 3 -245 111 Left 2
SYMATTR Value2 AC 50 0
SYMATTR Value SINE(0 50 0.4775)
SYMATTR InstName V1
SYMBOL res 272 32 R90
WINDOW 0 0 56 VBottom 2
WINDOW 3 32 56 VTop 2
SYMATTR InstName R1
SYMATTR Value 5
SYMBOL res 320 208 R180
WINDOW 0 36 76 Left 2
WINDOW 3 36 40 Left 2
SYMATTR InstName R2
SYMATTR Value 20
SYMBOL ind 336 64 R270
WINDOW 0 32 56 VTop 2
WINDOW 3 5 56 VBottom 2
SYMATTR InstName L1
SYMATTR Value 3
SYMBOL cap 416 224 R90
WINDOW 0 0 32 VBottom 2
WINDOW 3 32 32 VTop 2
SYMATTR InstName C1
SYMATTR Value 0.1111111
SYMBOL res 464 80 R0
SYMATTR InstName R3
SYMATTR Value 4
SYMBOL cap 464 176 R0
WINDOW 3 15 87 Left 2
SYMATTR Value 0.0555
SYMATTR InstName C2
SYMBOL ind 592 80 R0
SYMATTR InstName L2
SYMATTR Value 3.688
TEXT 96 288 Left 2 !.ac dec 10 0.4 0.5
