Version 4
SHEET 1 880 680
WIRE 208 80 144 80
WIRE 336 80 288 80
WIRE 144 128 144 80
WIRE 336 128 336 80
WIRE 144 256 144 208
WIRE 336 256 336 208
WIRE 336 256 144 256
FLAG 336 256 0
SYMBOL voltage 144 112 R0
WINDOW 123 24 124 Left 2
WINDOW 39 0 0 Left 0
SYMATTR Value2 AC 1
SYMATTR InstName V1
SYMATTR Value ""
SYMBOL res 304 64 R90
WINDOW 0 0 56 VBottom 2
WINDOW 3 32 56 VTop 2
SYMATTR InstName R1
SYMATTR Value 50
SYMBOL ind 320 112 R0
SYMATTR InstName L1
SYMATTR Value 3.4m
TEXT 110 280 Left 2 !.ac dec 10 10 100000
